/*--------------------------------*- C++ -*----------------------------------*\
| =========                 |                                                 |
| \\      /  F ield         | OpenFOAM: The Open Source CFD Toolbox           |
|  \\    /   O peration     | Version:  1.5                                   |
|   \\  /    A nd           | Web:      http://www.OpenFOAM.org               |
|    \\/     M anipulation  |                                                 |
\*---------------------------------------------------------------------------*/
FoamFile
{
    version     2.0;
    format      ascii;
    class       dictionary;
    object      fvSolution;
}
// * * * * * * * * * * * * * * * * * * * * * * * * * * * * * * * * * * * * * //

solvers
{
    T
    {
      solver                paralution_GAMG;
      MatrixFormat          CSR;
      smoother              paralution_MultiColoredILU;
      SmootherFormat        CSR;
      ILUp                  0;
      ILUq                  1;

      nPreSweeps            1;
      nPostSweeps           2;
      CoarseGridSolver      CG;
      preconditioner        None;

      cacheAgglomeration    true;
      nCellsInCoarsestLevel 8000;
      agglomerator          faceAreaPair;
      mergeLevels           2;     
      
      tolerance             1e-10;
      maxIter               100000;
    };
}

SIMPLE
{
    nNonOrthogonalCorrectors 1;
}

// ************************************************************************* //
